
*** ChampSim Multicore Out-of-Order Simulator ***

Warmup Instructions: 10000000
Simulation Instructions: 10000000
Number of CPUs: 1
LLC sets: 2048
LLC ways: 16
Off-chip DRAM Size: 4096 MB Channels: 1 Width: 64-bit Data Rate: 3200 MT/s

CPU 0 runs ./traces//trace.champsimtrace.xz
CPU 0 Bimodal branch predictor
CPU 0 L1D IP-based stride prefetcher
CPU 0 L2C IP-based stride prefetcher
Caught signal: 2
