
*** ChampSim Multicore Out-of-Order Simulator ***

Warmup Instructions: 10000000
Simulation Instructions: 10000000
Number of CPUs: 1
LLC sets: 2048
LLC ways: 16
Off-chip DRAM Size: 4096 MB Channels: 1 Width: 64-bit Data Rate: 3200 MT/s

CPU 0 runs ./traces//trace.champsimtrace.xz
CPU 0 Bimodal branch predictor
4206019,-1595987968,0
4206027,-1595987967,1
4206075,1287680002,2
4206023,1287690242,3
4206019,32
4206019,1287692288,4
4206027,1287692289,5
4206075,1287694339,6
4206016,1287700483,7
4206019,32
4206027,32
4206023,-2011647998,8
4206016,32
4206019,33
4206027,33
4206016,33
4206016,34
4206019,34
4206016,35
4206019,35
4206019,34
4206027,32
4206023,30
4206019,33
4206027,31
4206016,34
4206019,34
4206027,32
4206023,29
4206016,35
4206019,35
4206027,33
4206016,36
4206016,37
4206019,36
4206016,38
4206019,37
4206019,36
4206027,32
4206023,28
4206019,35
4206027,31
4206016,37
4206019,36
4206027,32
4206023,27
4206016,38
4206019,37
4206027,33
4206016,39
4206016,40
4206019,38
4206016,41
4206019,39
4206142,1304481792,9
4206137,1304481793,10
4206127,1304481794,10
4206016,40
4206016,41
4206016,42
4206016,43
4206016,44
4206016,43
4206016,44
4206016,45
4206016,46
4206016,47
4206016,46
4206016,47
4206016,48
4206142,32
4206137,1304483843,11
4206142,33
4206229,1304487936,12
4206127,32
4206127,33
4206229,32
4206324,1304496129,13
4206229,33
4206229,34
4206229,35
4206229,36
4206229,1110138880,14
4206324,1110138882,15
4206019,226043905,16
4206027,-1595987967,17
4206075,1287684097,18
4206023,1287690242,19
4206075,32
4206075,33
4206016,1287700483,20
4206075,32
4206023,32
4206016,32
4206016,33
4206142,1110140928,21
4206137,1110140931,21
4206075,33
4206075,32
4206075,33
4206023,31
4206075,34
4206075,35
4206075,34
4206023,32
4206075,35
4206075,34
4206075,35
4206023,31
4206075,36
4206075,37
4206075,36
4206023,32
4206127,1110145024,22
4206142,1110145026,22
4206075,37
4206075,36
4206075,37
4206075,38
4206075,39
4206075,38
4206075,37
4206075,38
4206075,37
4206075,38
4206075,39
4206075,40
4206075,39
4206075,38
4206075,39
4206075,38
4206075,39
4206075,40
4206075,41
4206075,40
4206075,39
4206075,40
4206075,39
4206075,40
4206075,41
4206075,42
4206075,43
4206075,42
4206075,43
4206075,44
4206075,43
4206075,42
4206075,43
4206075,42
4206075,43
4206075,44
4206075,45
4206075,44
4206075,43
4206142,32
4206127,1110147074,23
4206127,32
4206075,44
4206075,45
4206075,46
4206075,47
4206075,46
4206075,47
4206075,48
4206075,49
4206075,48
4206142,33
4206075,49
4206075,50
4206075,51
4206075,52
4206075,53
4206075,52
4206075,51
4206075,52
4206075,53
4206075,54
4206075,55
4206075,54
4206075,53
4206075,54
4206075,55
4206075,56
4206075,57
4206075,1287690241,24
4206027,1287692289,25
4206016,1287700483,26
4206023,1287702529,27
4206019,1287704578,27
4206023,-2011647998,27
4206016,32
4206019,-1132906496,27
4206016,33
4206016,34
4206019,32
4206019,33
4206019,34
4206016,35
4206019,33
4206019,32
4206019,31
4206019,30
4206019,31
4206019,30
4206023,1287690242,28
4206019,31
4206016,36
4206019,32
4206023,30
4206016,37
4206019,31
4206016,38
4206016,39
4206019,32
4206019,33
4206016,40
4206019,32
4206019,31
4206019,30
4206019,29
4206023,29
4206019,28
4206016,41
4206019,29
4206023,28
4206016,42
4206019,28
4206016,43
4206016,44
4206019,29
4206019,30
4206016,45
4206019,31
4206019,30
4206019,29
4206019,28
4206023,27
4206019,29
4206016,46
4206019,30
4206023,26
4206016,47
4206019,31
4206016,48
4206016,49
4206019,32
4206019,31
4206016,50
4206019,30
4206019,29
4206019,28
4206019,27
4206023,25
4206019,26
4206016,51
4206019,25
4206023,24
4206016,52
4206137,-1024552960,29
4206127,-1024552959,30
4206016,53
4206016,54
4206016,55
4206127,32
4206142,-1024550909,31
4206023,25
4206023,24
4206023,23
4206023,22
4206023,21
4206023,20
4206229,-1024548864,32
4206023,19
4206023,18
4206023,19
4206023,20
4206023,19
4206023,18
Heartbeat CPU 0 instructions: 10000001 cycles: 4485872 heartbeat IPC: 2.22922 cumulative IPC: 2.22922 (Simulation time: 0 hr 0 min 22 sec) 

Warmup complete CPU 0 instructions: 10000001 cycles: 4485872 (Simulation time: 0 hr 0 min 22 sec) 

4206023,17
4206023,16
4206023,15
4206023,14
4206023,13
4206023,12
4206023,11
Heartbeat CPU 0 instructions: 20000000 cycles: 61282717 heartbeat IPC: 0.176066 cumulative IPC: 0.176066 (Simulation time: 0 hr 1 min 7 sec) 
Finished CPU 0 instructions: 10000003 cycles: 56796846 cumulative IPC: 0.176066 (Simulation time: 0 hr 1 min 7 sec) 

ChampSim completed all CPUs

Region of Interest Statistics

CPU 0 cumulative IPC: 0.176066 instructions: 10000003 cycles: 56796846
L1D TOTAL     ACCESS:    3776311  HIT:    2245159  MISS:    1531152
L1D LOAD      ACCESS:    3175711  HIT:    1677564  MISS:    1498147
L1D RFO       ACCESS:     600600  HIT:     567595  MISS:      33005
L1D PREFETCH  ACCESS:          0  HIT:          0  MISS:          0
L1D WRITEBACK ACCESS:          0  HIT:          0  MISS:          0
L1D PREFETCH  REQUESTED:          0  ISSUED:          0  USEFUL:          0  USELESS:          0
L1D AVERAGE MISS LATENCY: 95.8383 cycles
L1I TOTAL     ACCESS:    2612704  HIT:    2612704  MISS:          0
L1I LOAD      ACCESS:    2612704  HIT:    2612704  MISS:          0
L1I RFO       ACCESS:          0  HIT:          0  MISS:          0
L1I PREFETCH  ACCESS:          0  HIT:          0  MISS:          0
L1I WRITEBACK ACCESS:          0  HIT:          0  MISS:          0
L1I PREFETCH  REQUESTED:          0  ISSUED:          0  USEFUL:          0  USELESS:          0
L1I AVERAGE MISS LATENCY: -nan cycles
L2C TOTAL     ACCESS:    1570595  HIT:      39470  MISS:    1531125
L2C LOAD      ACCESS:    1498147  HIT:         51  MISS:    1498096
L2C RFO       ACCESS:      33005  HIT:         61  MISS:      32944
L2C PREFETCH  ACCESS:          0  HIT:          0  MISS:          0
L2C WRITEBACK ACCESS:      39443  HIT:      39358  MISS:         85
L2C PREFETCH  REQUESTED:          0  ISSUED:          0  USEFUL:          0  USELESS:          0
L2C AVERAGE MISS LATENCY: 80.6561 cycles
LLC TOTAL     ACCESS:    1570436  HIT:     872065  MISS:     698371
LLC LOAD      ACCESS:    1498096  HIT:     860855  MISS:     637241
LLC RFO       ACCESS:      32944  HIT:        185  MISS:      32759
LLC PREFETCH  ACCESS:          0  HIT:          0  MISS:          0
LLC WRITEBACK ACCESS:      39396  HIT:      11025  MISS:      28371
LLC PREFETCH  REQUESTED:          0  ISSUED:          0  USEFUL:          0  USELESS:          0
LLC AVERAGE MISS LATENCY: 110.996 cycles
Major fault: 0 Minor fault: 2836

DRAM Statistics
 CHANNEL 0
 RQ ROW_BUFFER_HIT:     412234  ROW_BUFFER_MISS:     257766
 DBUS_CONGESTED:     104663
 WQ ROW_BUFFER_HIT:      25892  ROW_BUFFER_MISS:       6063  FULL:          0

 AVG_CONGESTED_CYCLE: 6

CPU 0 Branch Prediction Accuracy: 97.6028% MPKI: 4.3561 Average ROB Occupancy at Mispredict: 53.3014

Branch types
NOT_BRANCH: 8182834 81.8283%
BRANCH_DIRECT_JUMP: 407988 4.07988%
BRANCH_INDIRECT: 0 0%
BRANCH_CONDITIONAL: 1409017 14.0902%
BRANCH_DIRECT_CALL: 80 0.0008%
BRANCH_INDIRECT_CALL: 0 0%
BRANCH_RETURN: 80 0.0008%
BRANCH_OTHER: 0 0%

